/*--------------------------------*- C++ -*----------------------------------*\
| =========                 |                                                 |
| \\      /  F ield         | OpenFOAM: The Open Source CFD Toolbox           |
|  \\    /   O peration     | Version:  v1906                                 |
|   \\  /    A nd           | Web:      www.OpenFOAM.com                      |
|    \\/     M anipulation  |                                                 |
\*---------------------------------------------------------------------------*/
FoamFile
{
    version     2.0;
    format      ascii;
    class       volScalarField;
    object      nut;
}
// * * * * * * * * * * * * * * * * * * * * * * * * * * * * * * * * * * * * * //

#include        "../constants"

dimensions      [0 2 -1 0 0 0 0];

internalField   uniform $nut;   

boundaryField
{
    inlet
    {
        type                freestream;
        freestreamValue     uniform $nut;
    }

    outlet
    {
        type                freestream;
        freestreamValue     uniform $nut;
    }

    top
    {
        type                freestream;
        freestreamValue     uniform $nut;
    }

    bottom
    {
        type                freestream;
        freestreamValue     uniform $nut;
    }

    sides
    {
        type                freestream;
        freestreamValue     uniform $nut;
    }

    sphere
    {
        type                nutkWallFunction;
        value               uniform $nut;
    }
}

// ************************************************************************* //
